
Note: No compatibility mode selected!


Circuit: ** sch_path: /home/designer/shared/design/cclna/testbench_currentm_ota.sch

Error: unknown subckt: xm3 net5 net1 vdd vdd sg13_lv_pmos w=4u l=1u ng=1 m=1
    in line no. 5 from file /home/designer/shared/Design/CCLNA/simulations/testbench_CurrentM_OTA.spice
    Simulation interrupted due to error!

