
Note: No compatibility mode selected!


Circuit: ** sch_path: /home/designer/shared/design/cclna/testbench_currentm_ota.sch

Doing analysis at TEMP = 27.000000 and TNOM = 27.000000

Using SPARSE 1.3 as Direct Linear Solver

No. of Data Rows : 884
ASCII raw file "testbench_CurrentM_OTA.raw"
Doing analysis at TEMP = 27.000000 and TNOM = 27.000000

Using SPARSE 1.3 as Direct Linear Solver

No. of Data Rows : 1
ASCII raw file "testbench_CurrentM_OTA.raw"
Note: Simulation executed from .control section 
