
Note: No compatibility mode selected!


Circuit: ** sch_path: /home/designer/shared/design/cclna/testbench_ccl.sch

Doing analysis at TEMP = 27.000000 and TNOM = 27.000000

Using SPARSE 1.3 as Direct Linear Solver
Warning: singular matrix:  check node vout

Note: Starting dynamic gmin stepping
Warning: singular matrix:  check node vout

Warning: Dynamic gmin stepping failed
Note: Starting true gmin stepping
Warning: singular matrix:  check node vout

Warning: singular matrix:  check node vout

Warning: singular matrix:  check node vout

Warning: singular matrix:  check node vout

Warning: True gmin stepping failed
Note: Starting source stepping
Warning: source stepping failed
Note: Transient op started
Note: Transient op finished successfully

No. of Data Rows : 101
Error: argument out of range for db
  in term: vdb(vout)

Doing analysis at TEMP = 27.000000 and TNOM = 27.000000

Using SPARSE 1.3 as Direct Linear Solver
Note: Starting dynamic gmin stepping
Warning: singular matrix:  check node vout

Warning: Dynamic gmin stepping failed
Note: Starting true gmin stepping
Warning: singular matrix:  check node vout

Warning: singular matrix:  check node vout

Warning: singular matrix:  check node vout

Warning: singular matrix:  check node vout

Warning: singular matrix:  check node vout

Warning: True gmin stepping failed
Note: Starting source stepping
Warning: source stepping failed
Note: Transient op started
Note: Transient op finished successfully

No. of Data Rows : 1
ASCII raw file "testbench_CCL.raw"
Note: Simulation executed from .control section 
